/*--------------------------------*- C++ -*----------------------------------*\
| =========                 |                                                 |
| \\      /  F ield         | OpenFOAM: The Open Source CFD Toolbox           |
|  \\    /   O peration     | Version:  v2112                                 |
|   \\  /    A nd           | Website:  www.openfoam.com                      |
|    \\/     M anipulation  |                                                 |
\*---------------------------------------------------------------------------*/
FoamFile
{
    version     2.0;
    format      ascii;
    class       dictionary;
    object      fvSolution;
}
// * * * * * * * * * * * * * * * * * * * * * * * * * * * * * * * * * * * * * //

solvers
{
    "rho.*"
    {
        solver          PCG;
        preconditioner  DIC;
        tolerance       0;
        relTol          0;
    }
    "f.*"
    {
        solver          PBiCGStab;
        preconditioner  DIC;
        tolerance       1e-8;
        relTol          0.0;
        // minIter        1;
    }

    "(p_rgh|cellDisplacement)"
    {
        solver          PCG;
        preconditioner  DIC;
        tolerance       1e-10;
        relTol          0.01;
    }

    p_rghFinal
    {
        $p_rgh;
        relTol          0;
    }

    "(U|h|e|k|v2|epsilon|R|omega|gammaInt|phit)"
    {
        solver          PBiCGStab;
        preconditioner  DILU;
        tolerance       1e-8;
        relTol          0.01;
        minIter        1;
    }

    "(U|h|e|k|v2|epsilon|R|omega|gammaInt|phit)Final"
    {
        $U;
        relTol          0;
    }
    // f
    // {
    //     solver          PBiCGStab;
    //     preconditioner  DIC;
    //     tolerance       1e-10;
    //     relTol          0.0;
    //     minIter        1;
    // }

}

PIMPLE
{
    momentumPredictor   yes;
    nOuterCorrectors    1;
    nCorrectors         3;
    nNonOrthogonalCorrectors 1;
    pRefCell            0;
    pRefValue           1e5;
    ddtCorr             true;
    turbOnFinalIterOnly false;

    // residualControl
    // {
    //     // h
    //     // {
    //     //     tolerance       1e-4;
    //     //     relTol          0;
    //     // }
    //     p_rgh
    //     {
    //         tolerance       1e-8;
    //         relTol          0;
    //     }
    // }

}

relaxationFactors
{
  fields
  {
    p_rgh 0.3;
    // rho   0.7;
    "(p_rgh|rho)Final" 1;
    // ".*Final" 1;
  }
  equations
  {
    U   0.7;
    h   0.2;
    k   0.1;
    epsilon 0.1;
    "(h|e|U|T|k|epsilon)Final" 1;
  }
}
