/*--------------------------------*- C++ -*----------------------------------*\
| =========                 |                                                 |
| \\      /  F ield         | OpenFOAM: The Open Source CFD Toolbox           |
|  \\    /   O peration     | Version:  v1912                                 |
|   \\  /    A nd           | Website:  www.openfoam.com                      |
|    \\/     M anipulation  |                                                 |
\*---------------------------------------------------------------------------*/
FoamFile
{
    version     2.0;
    format      ascii;
    class       dictionary;
    object      setExprBoundaryFieldsDict;
}
// * * * * * * * * * * * * * * * * * * * * * * * * * * * * * * * * * * * * * //

pattern
{
  field T;
  expressions
    (
  {
    patch       wall_top;
    target      value;
    variables
      (
      "x=pos().x()"
      );
    expression
      #{
      321.8119
      - 111.8661*x
      + 591.1765*x*x
      - 1907.9947*x*x*x
      + 3218.2247*x*x*x*x
      - 2526.6046*x*x*x*x*x
      + 570.2755*x*x*x*x*x*x
      #};
  }
  {
    patch       wall_bottom;
    target      value;
    variables
      (
      "x=pos().x()"
      );
    expression
      #{
      321.2651
      - 223.5313*x
      + 1144.5050*x*x
      - 3556.7103*x*x*x
      + 6103.7631*x*x*x*x
      - 5285.3738*x*x*x*x*x
      + 1739.4672*x*x*x*x*x*x
      #};
  }
    );

}



// ************************************************************************* //
