/*--------------------------------*- C++ -*----------------------------------*\
| =========                 |                                                 |
| \\      /  F ield         | OpenFOAM: The Open Source CFD Toolbox           |
|  \\    /   O peration     | Version:  v2112                                 |
|   \\  /    A nd           | Website:  www.openfoam.com                      |
|    \\/     M anipulation  |                                                 |
\*---------------------------------------------------------------------------*/
FoamFile
{
    version     2.0;
    format      ascii;
    class       dictionary;
    object      thermophysicalProperties;
}
// * * * * * * * * * * * * * * * * * * * * * * * * * * * * * * * * * * * * * //

thermoType
{
    type            heRhoThermo;
    mixture         pureMixture;
    // transport       polynomial;
    // thermo          hPolynomial;
    thermo          hConst;
    transport       sutherland;
    equationOfState perfectGas;
    specie          specie;
    energy          sensibleEnthalpy;
}

mixture
{
  specie
  {
    nMoles          1;
    molWeight       28.96;
  }
  thermodynamics
  {
    gamma           1.4;
    R               287.05;
    Cp              1004.675;
    CpCoeffs<8>     (1004.675 0 0 0 0 0 0 0);
    Sf              0;
    Hf              2.544e+06;
  }
  transport
  {
    mu              1.8e-05;
    Pr              0.71;
    As               1.4792e-06;
    Ts               116;
    kappaCoeffs<8> (
        -1.9255e-03
        1.4063e-04
        -2.1543e-07
        3.3231e-10
        -3.7459e-13
        2.7836e-16
        -1.2074e-19
        2.3047e-23
        );
    muCoeffs<8> (
        -1.3610e-06
        9.9401e-08
        -1.5227e-10
        2.3488e-13
        -2.6477e-16
        1.9675e-19
        -8.5342e-23
        1.6290e-26
        );
  }
}





// ************************************************************************* //
